Circuit: * D:\development\1EDFAcontroller\Simulation\LTSpice\ReserveAndOverVoltageProtection\ReserveOverVoltageProtection.asc

Direct Newton iteration for .op point succeeded.

Date: Tue Oct 04 20:56:31 2022
Total elapsed time: 0.185 seconds.

tnom = 27
temp = 27
method = modified trap
totiter = 4831
traniter = 4793
tranpoints = 1779
accept = 1578
rejected = 201
matrix size = 18
fillins = 6
solver = Normal
Matrix Compiler1: 1.68 KB object code size  0.4/0.3/[0.2]
Matrix Compiler2: off  [0.2]/0.4/0.2

