Circuit: * C:\Users\mihal\development\EDFAcontroller\Simulation\LaserControllerCircuit\LaserControllerCircuit.asc

Direct Newton iteration failed to find .op point.  (Use ".option noopiter" to skip.)
Starting Gmin stepping
Gmin = 10
Gmin = 1.07374
Gmin = 0.115292
Gmin = 0.0123794
Gmin = 0.00132923
Gmin = 0.000142725
Gmin = 1.5325e-005
Gmin = 1.6455e-006
Gmin = 1.76685e-007
Gmin = 1.89714e-008
Gmin = 2.03704e-009
Gmin = 2.18725e-010
Gmin = 2.34854e-011
Gmin = 2.52173e-012
Gmin = 2.70769e-013
Gmin = 0
Gmin stepping succeeded in finding the operating point.


Date: Sun Dec 11 16:20:32 2022
Total elapsed time: 0.132 seconds.

tnom = 27
temp = 27
method = modified trap
totiter = 3824
traniter = 3430
tranpoints = 1716
accept = 1716
rejected = 0
matrix size = 32
fillins = 41
solver = Normal
Matrix Compiler1:     199 opcodes  0.6/[0.3]/0.3
Matrix Compiler2: 3.57 KB object code size  0.2/0.3/[0.2]

