Circuit: * D:\development\1EDFAcontroller\Simulation\LaserControllerCircuit\LaserControllerCircuit.asc

Limiting fall time of source v4 to 3.5
Direct Newton iteration for .op point succeeded.

Date: Mon Oct 17 14:12:11 2022
Total elapsed time: 0.194 seconds.

tnom = 27
temp = 27
method = modified trap
totiter = 3624
traniter = 3577
tranpoints = 1750
accept = 1742
rejected = 8
matrix size = 24
fillins = 13
solver = Normal
Matrix Compiler1: 1.56 KB object code size  0.5/0.3/[0.2]
Matrix Compiler2: 2.16 KB object code size  0.3/0.4/[0.2]

