Circuit: * D:\development\1EDFAcontroller\Simulation\LTSpice\ESDProtection.asc

WARNING: Node N004 is floating.

Direct Newton iteration for .op point succeeded.

Date: Tue Oct 04 19:49:04 2022
Total elapsed time: 0.080 seconds.

tnom = 27
temp = 27
method = modified trap
totiter = 2400
traniter = 2397
tranpoints = 1194
accept = 1174
rejected = 20
matrix size = 6
fillins = 1
solver = Normal
Matrix Compiler1:      14 opcodes  0.1/[0.0]/0.0
Matrix Compiler2: off  [0.0]/0.1/0.0

