Circuit: * D:\development\1EDFAcontroller\Simulation\MonitorDiode\monitordiode.asc

Direct Newton iteration for .op point succeeded.

Date: Sat Oct 08 13:18:46 2022
Total elapsed time: 0.167 seconds.

tnom = 27
temp = 27
method = modified trap
totiter = 2099
traniter = 2088
tranpoints = 1045
accept = 1045
rejected = 0
matrix size = 9
fillins = 3
solver = Normal
Matrix Compiler1: 582 bytes object code size  0.3/0.2/[0.1]
Matrix Compiler2: 861 bytes object code size  0.2/0.3/[0.1]

