Circuit: * C:\Users\mihal\development\EDFAcontroller\Simulation\MonitorDiode\monitordiode.asc

Direct Newton iteration for .op point succeeded.

Date: Tue Dec 13 09:52:03 2022
Total elapsed time: 0.054 seconds.

tnom = 27
temp = 27
method = modified trap
totiter = 2127
traniter = 2116
tranpoints = 1045
accept = 1045
rejected = 0
matrix size = 9
fillins = 3
solver = Normal
Matrix Compiler1:      33 opcodes  0.1/[0.1]/0.1
Matrix Compiler2:      65 opcodes  0.1/[0.1]/0.1

