Circuit: * C:\Users\mihal\development\EDFAcontroller\Simulation\ReserveAndOverVoltageProtection\ReserveOverVoltageProtection.asc

Direct Newton iteration for .op point succeeded.

Date: Tue Dec 13 12:27:26 2022
Total elapsed time: 0.084 seconds.

tnom = 27
temp = 27
method = modified trap
totiter = 4831
traniter = 4793
tranpoints = 1779
accept = 1578
rejected = 201
matrix size = 18
fillins = 6
solver = Normal
Matrix Compiler1: 1.68 KB object code size  0.3/0.1/[0.1]
Matrix Compiler2: off  [0.1]/0.1/0.1

